Other/GIC20/upstream/GIC20_Bus_Test_Case.m
% Case saved by PowerWorld Simulator, version 23, build date October 25, 2023
function mpc = GIC 20_Bus Test Case
mpc.version = '2';
mpc.baseMVA =  100.00;

%% bus data 
mpc.bus = [
1	3	0.00	0.00	0.00	0.00	1	1.0500000	-2.093334	22.00	1	1.100	0.900
2	1	0.00	0.00	0.00	0.00	1	1.0438135	-7.783673	345.00	1	1.100	0.900
3	1	600.00	200.00	0.00	0.00	1	1.0300774	-21.982358	345.00	1	1.100	0.900
4	1	900.00	400.00	0.00	500.00	1	1.0487901	-22.731124	500.00	1	1.100	0.900
5	1	1200.00	350.00	0.00	0.00	1	1.0485623	-21.439294	500.00	1	1.100	0.900
6	1	300.00	150.00	0.00	0.00	1	1.0500010	-17.520638	500.00	1	1.100	0.900
7	2	0.00	0.00	0.00	0.00	1	1.0388654	-12.308724	22.00	1	1.100	0.900
8	2	0.00	0.00	0.00	0.00	1	1.0388654	-12.308724	22.00	1	1.100	0.900
11	1	0.00	0.00	0.00	0.00	1	1.0543798	-16.395593	500.00	1	1.100	0.900
12	1	0.00	0.00	0.00	0.00	1	1.0530603	-7.960867	500.00	1	1.100	0.900
13	2	0.00	0.00	0.00	0.00	1	1.0500001	-4.071240	22.00	1	1.100	0.900
14	2	0.00	0.00	0.00	0.00	1	1.0500001	-4.071240	22.00	1	1.100	0.900
15	1	1200.00	500.00	0.00	0.00	1	1.0325783	-22.438819	500.00	1	1.100	0.900
16	1	500.00	200.00	0.00	200.00	1	1.0328011	-20.696258	345.00	1	1.100	0.900
17	1	0.00	0.00	0.00	0.00	1	1.0500004	-6.708171	345.00	1	1.100	0.900
18	2	0.00	0.00	0.00	0.00	1	1.0507828	-2.968114	22.00	1	1.100	0.900
19	2	0.00	0.00	0.00	0.00	1	1.0507829	-2.968109	22.00	1	1.100	0.900
20	1	0.00	0.00	0.00	0.00	1	1.0451758	-19.189984	345.00	1	1.100	0.900
21	1	0.00	0.00	0.00	0.00	1	1.0336725	-25.679769	500.00	1	1.100	0.900
];

%% generator data 
mpc.gen = [
1	777.13	75.65	400.00	-300.00	1.0500	1000.00	1	777.13	777.13	0.00	0.00	0.00	0.00	0.00	0.00	0	0	0	0	10.0000
7	900.00	-73.99	400.00	-350.00	1.0389	1100.00	1	900.00	900.00	0.00	0.00	0.00	0.00	0.00	0.00	0	0	0	0	10.0000
8	900.00	-73.99	400.00	-350.00	1.0389	1100.00	1	900.00	900.00	0.00	0.00	0.00	0.00	0.00	0.00	0	0	0	0	10.0000
13	500.00	-7.11	225.00	-200.00	1.0500	650.00	1	500.00	500.00	0.00	0.00	0.00	0.00	0.00	0.00	0	0	0	0	10.0000
14	500.00	-7.11	225.00	-200.00	1.0500	650.00	1	500.00	500.00	0.00	0.00	0.00	0.00	0.00	0.00	0	0	0	0	10.0000
18	600.00	18.03	400.00	-300.00	1.0508	900.00	1	600.00	600.00	0.00	0.00	0.00	0.00	0.00	0.00	0	0	0	0	10.0000
19	600.00	18.03	400.00	-300.00	1.0508	900.00	1	600.00	600.00	0.00	0.00	0.00	0.00	0.00	0.00	0	0	0	0	10.0000
];

%% generator cost data
mpc.gencost = [
2	0	0	4	0	0	1	0
2	0	0	4	0	0	1	0
2	0	0	4	0	0	1	0
2	0	0	4	0	0	1	0
2	0	0	4	0	0	1	0
2	0	0	4	0	0	1	0
2	0	0	4	0	0	1	0
];

%% branch data
mpc.branch = [
1	2	0.000168	0.014000	0.00000	1644.50	0.00	0.00	1.00000	0.000	1	0.00	0.00	777.13	75.65	-776.20	1.77
2	3	0.002950	0.031500	0.53900	2120.00	0.00	0.00	0.00000	0.000	1	0.00	0.00	843.87	41.40	-824.46	107.97
17	2	0.002960	0.031000	0.54000	2120.00	0.00	0.00	0.00000	0.000	1	0.00	0.00	67.80	-14.66	-67.67	-43.17
3	4	0.000164	0.025000	0.00000	2000.00	0.00	0.00	1.00000	0.000	1	0.00	0.00	55.97	-77.10	-55.95	79.24
3	4	0.000160	0.025000	0.00000	2000.00	0.00	0.00	1.00000	0.000	1	0.00	0.00	55.98	-77.09	-55.96	79.23
3	4	0.000070	0.025000	0.00000	2000.00	0.00	0.00	1.00000	0.000	1	0.00	0.00	56.26	-76.89	-56.25	79.03
3	4	0.000070	0.025000	0.00000	2000.00	0.00	0.00	1.00000	0.000	1	0.00	0.00	56.26	-76.89	-56.25	79.03
4	5	0.000938	0.015450	1.65000	2000.00	0.00	0.00	0.00000	0.000	1	0.00	0.00	-159.68	-77.70	159.90	-100.15
4	5	0.000938	0.015450	0.00000	2000.00	0.00	0.00	0.00000	0.000	1	0.00	0.00	-159.68	13.05	159.90	-9.44
4	6	0.001866	0.030750	3.28000	2000.00	0.00	0.00	0.00000	0.000	1	0.00	0.00	-323.39	-150.10	325.18	-181.61
15	4	0.000794	0.013800	1.40000	2000.00	0.00	0.00	0.00000	0.000	1	0.00	0.00	32.95	-197.73	-32.83	48.20
5	6	0.001190	0.017800	2.46400	0.00	0.00	0.00	0.00000	0.000	1	0.00	0.00	-420.43	-101.36	422.35	-141.12
20	5	0.000067	0.025000	0.00000	2000.00	0.00	0.00	1.00000	0.000	1	0.00	0.00	172.02	-11.24	-172.00	18.04
20	5	0.000067	0.025000	0.00000	2000.00	0.00	0.00	1.00000	0.000	1	0.00	0.00	172.02	-11.24	-172.00	18.04
5	21	0.000000	-0.010610	0.00000	2000.00	0.00	0.00	0.00000	0.000	1	0.00	0.00	-755.36	-175.13	755.36	117.11
6	7	0.000120	0.011000	0.00000	1200.00	0.00	0.00	1.00000	0.000	1	0.00	0.00	-899.09	157.10	900.00	-73.99
6	8	0.000120	0.011000	0.00000	1200.00	0.00	0.00	1.00000	0.000	1	0.00	0.00	-899.09	157.10	900.00	-73.99
6	11	0.000578	0.009610	1.01700	2000.00	0.00	0.00	0.00000	0.000	1	0.00	0.00	-228.11	-87.96	228.39	-20.00
15	6	0.001170	0.019200	2.05000	2000.00	0.00	0.00	0.00000	0.000	1	0.00	0.00	-486.76	-152.53	489.38	-26.76
15	6	0.001170	0.019200	2.05000	2000.00	0.00	0.00	0.00000	0.000	1	0.00	0.00	-486.76	-152.53	489.38	-26.76
11	12	0.000930	0.016300	1.63000	1200.00	0.00	0.00	0.00000	0.000	1	0.00	0.00	-991.26	48.17	999.64	-82.26
21	11	0.001404	0.023250	2.47200	2000.00	0.00	0.00	0.00000	0.000	1	0.00	0.00	-755.36	-117.11	762.86	-28.16
12	13	0.000080	0.015000	0.00000	750.00	0.00	0.00	1.00000	0.000	1	0.00	0.00	-499.82	41.13	500.00	-7.11
12	14	0.000080	0.015000	0.00000	750.00	0.00	0.00	1.00000	0.000	1	0.00	0.00	-499.82	41.13	500.00	-7.11
16	15	0.000067	0.025000	0.00000	2000.00	0.00	0.00	1.00000	0.000	1	0.00	0.00	129.72	2.55	-129.71	1.40
16	15	0.000067	0.025000	0.00000	2000.00	0.00	0.00	1.00000	0.000	1	0.00	0.00	129.72	2.55	-129.71	1.40
16	17	0.003920	0.038200	0.71400	2120.00	0.00	0.00	0.00000	0.000	1	0.00	0.00	-675.23	68.89	692.41	21.05
16	20	0.003402	0.034800	0.62300	2120.00	0.00	0.00	0.00000	0.000	1	0.00	0.00	-84.22	-60.65	84.47	-4.05
18	17	0.000168	0.012000	0.00000	1644.50	0.00	0.00	1.00000	0.000	1	0.00	0.00	600.00	18.03	-599.45	21.13
19	17	0.000168	0.012000	0.00000	1644.50	0.00	0.00	1.00000	0.000	1	0.00	0.00	600.00	18.03	-599.45	21.13
17	20	0.005830	0.054200	1.06400	2120.00	0.00	0.00	0.00000	0.000	1	0.00	0.00	438.69	-48.64	-428.51	26.53
];

%% bus names
mpc.bus_name = {
'1';
'2';
'3';
'4';
'5';
'6';
'7';
'8';
'11';
'12';
'13';
'14';
'15';
'16';
'17';
'18';
'19';
'20';
'21';
};

%% Generator Unit Types
mpc.gentype = {
'UN';
'UN';
'UN';
'UN';
'UN';
'UN';
'UN';
};

%% Generator Fuel Types
mpc.genfuel = {
'unknown';
'unknown';
'unknown';
'unknown';
'unknown';
'unknown';
'unknown';
};
